$DATA1 SOURCE='HSPICE' VERSION='D-2010.03-SP2 32-BIT'
.TITLE '* hspice deck'
 avg_pwr          tpdrise          tpdfall          totrrise          
 totrfall         temper           alter#            
  8.225e-07        5.643e-10        2.753e-10        6.875e-10        
  3.237e-10         25.0000        1                 
