$DATA1 SOURCE='HSPICE' VERSION='D-2010.03-SP2 32-BIT'
.TITLE 'inverter: basic example'
 tpd_in01         ttr              leak_pow_in1     leak_pow_in0      
 dyn_pow          temper           alter#            
  6.967e-09        1.276e-09        3.066e-06        2.149e-07        
  1.039e-07        125.0000        1                 
